input_files/case6.raw
0, 100, 33, 0, 0, 60  / 24-Aug-2022 23:23:14 - MATPOWER 7.0


     1, 'BUS 1       ',       230, 3,    1,    1, 1,        1.05,           0, 1.05, 1.05, 1.05, 1.05
     2, 'BUS 2       ',       230, 2,    1,    1, 1,        1.05,           0, 1.05, 1.05, 1.05, 1.05
     3, 'BUS 3       ',       230, 2,    1,    1, 1,        1.07,           0, 1.07, 1.07, 1.07, 1.07
     4, 'BUS 4       ',       230, 1,    1,    1, 1,           1,           0, 1.05, 0.95, 1.05, 0.95
     5, 'BUS 5       ',       230, 1,    1,    1, 1,           1,           0, 1.05, 0.95, 1.05, 0.95
     6, 'BUS 6       ',       230, 1,    1,    1, 1,           1,           0, 1.05, 0.95, 1.05, 0.95
0 / END OF BUS DATA, BEGIN LOAD DATA
     4,  1, 1,    1,    1,        70,        70, 0, 0, 0, 0, 1, 1, 0
     5,  1, 1,    1,    1,        70,        70, 0, 0, 0, 0, 1, 1, 0
     6,  1, 1,    1,    1,        70,        70, 0, 0, 0, 0, 1, 1, 0
0 / END OF LOAD DATA, BEGIN FIXED SHUNT DATA
0 / END OF FIXED SHUNT DATA, BEGIN GENERATOR DATA
     1,  1,         0,         0,       100,      -100,     1.05, 0,     100, 0, 1, 0, 0, 1, 1, 100,       200,        50, 1, 1, 0, 1, 0, 1, 0, 1, 0, 1
     2,  1,        50,         0,       100,      -100,     1.05, 0,     100, 0, 1, 0, 0, 1, 1, 100,       150,      37.5, 1, 1, 0, 1, 0, 1, 0, 1, 0, 1
     3,  1,        60,         0,       100,      -100,     1.07, 0,     100, 0, 1, 0, 0, 1, 1, 100,       180,        45, 1, 1, 0, 1, 0, 1, 0, 1, 0, 1
0 / END OF GENERATOR DATA, BEGIN BRANCH DATA
     1,      2, 1,      0.1,      0.2,     0.04,      40,      40,      40, 0, 0, 0, 0, 1, 1, 0, 1, 1, 0, 1, 0, 1, 0, 1
     1,      4, 1,     0.05,      0.2,     0.04,      60,      60,      60, 0, 0, 0, 0, 1, 1, 0, 1, 1, 0, 1, 0, 1, 0, 1
     1,      5, 1,     0.08,      0.3,     0.06,      40,      40,      40, 0, 0, 0, 0, 1, 1, 0, 1, 1, 0, 1, 0, 1, 0, 1
     2,      3, 1,     0.05,     0.25,     0.06,      40,      40,      40, 0, 0, 0, 0, 1, 1, 0, 1, 1, 0, 1, 0, 1, 0, 1
     2,      4, 1,     0.05,      0.1,     0.02,      60,      60,      60, 0, 0, 0, 0, 1, 1, 0, 1, 1, 0, 1, 0, 1, 0, 1
     2,      5, 1,      0.1,      0.3,     0.04,      30,      30,      30, 0, 0, 0, 0, 1, 1, 0, 1, 1, 0, 1, 0, 1, 0, 1
     2,      6, 1,     0.07,      0.2,     0.05,      90,      90,      90, 0, 0, 0, 0, 1, 1, 0, 1, 1, 0, 1, 0, 1, 0, 1
     3,      5, 1,     0.12,     0.26,     0.05,      70,      70,      70, 0, 0, 0, 0, 1, 1, 0, 1, 1, 0, 1, 0, 1, 0, 1
     3,      6, 1,     0.02,      0.1,     0.02,      80,      80,      80, 0, 0, 0, 0, 1, 1, 0, 1, 1, 0, 1, 0, 1, 0, 1
     4,      5, 1,      0.2,      0.4,     0.08,      20,      20,      20, 0, 0, 0, 0, 1, 1, 0, 1, 1, 0, 1, 0, 1, 0, 1
     5,      6, 1,      0.1,      0.3,     0.06,      40,      40,      40, 0, 0, 0, 0, 1, 1, 0, 1, 1, 0, 1, 0, 1, 0, 1
0 / END OF BRANCH DATA, BEGIN TRANSFORMER DATA
0 / END OF TRANSFORMER DATA, BEGIN AREA DATA
0 / END OF AREA DATA, BEGIN TWO-TERMINAL DC DATA
0 / END OF TWO-TERMINAL DC DATA, BEGIN VOLTAGE SOURCE CONVERTER DATA
0 / END OF VOLTAGE SOURCE CONVERTER DATA, BEGIN IMPEDANCE CORRECTION DATA
0 / END OF IMPEDANCE CORRECTION DATA, BEGIN MULTI-TERMINAL DC DATA
0 / END OF MULTI-TERMINAL DC DATA, BEGIN MULTI-SECTION LINE DATA
0 / END OF MULTI-SECTION LINE DATA, BEGIN ZONE DATA
0 / END OF ZONE DATA, BEGIN INTER-AREA TRANSFER DATA
0 / END OF INTER-AREA TRANSFER DATA, BEGIN OWNER DATA
0 / END OF OWNER DATA, BEGIN FACTS CONTROL DEVICE DATA
0 / END OF FACTS CONTROL DEVICE DATA, BEGIN SWITCHED SHUNT DATA
0 / END OF SWITCHED SHUNT DATA, BEGIN GNE DEVICE DATA
0 / END OF GNE DEVICE DATA, BEGIN INDUCTION MACHINE DATA
0 / END OF INDUCTION MACHINE DATA
Q
